260       
 
Ti        0.0000053700        1.4805514970       -1.0689260663
Ti        0.0000055210       -1.4805531239       -1.0689213872
O         0.0000044240       -0.0000011199       -2.5484030183
O        -2.0352591415        1.4805451837       -1.1114938569
O         2.0352653475        1.4805452794       -1.1114916381
O         2.0352647102       -1.4805470010       -1.1114929595
O        -2.0352590746       -1.4805472267       -1.1114950339
O        -0.0000003775        2.9610915503       -0.0000027177
O        -0.0000003775       -2.9610955216       -0.0000027177
Ti        3.2540231919       -0.0000011204       -1.4271620261
Ti       -3.2540161055       -0.0000011204       -1.4271620261
O         0.0000044999        2.9610919920       -2.5484043820
O         0.0000044999       -2.9610950799       -2.5484043820
Ti       -0.0000522037       -0.0000007101       -4.4128839605
Ti        0.0000055210        4.4416339481       -1.0689213872
Ti        0.0000053700       -4.4416355749       -1.0689260663
O         3.2540260343       -0.0000006366       -3.2399050149
O        -3.2540132632       -0.0000006366       -3.2399050149
Ti       -3.2540166829        2.9610930255       -1.4271623583
Ti        3.2540226146        2.9610930255       -1.4271623583
Ti        3.2540226146       -2.9610940464       -1.4271623583
Ti       -3.2540166829       -2.9610940464       -1.4271623583
O        -4.4727739499        1.4805452794       -1.1114916381
O         4.4727801560        1.4805451837       -1.1114938569
O         4.4727802228       -1.4805472267       -1.1114950339
O        -4.4727745873       -1.4805470010       -1.1114929595
O        -1.3010680445        1.4805460061       -4.5164496616
O         1.3010910344        1.4805459101       -4.5164550958
O         1.3010909567       -1.4805482121       -4.5164549234
O        -1.3010679893       -1.4805480507       -4.5164494659
O        -2.0352590746        4.4416398453       -1.1114950339
O         2.0352647102        4.4416400710       -1.1114929595
O         2.0352653475       -4.4416417926       -1.1114916381
O        -2.0352591415       -4.4416418883       -1.1114938569
Ti       -0.0000520636        2.9610930164       -4.4128820631
Ti       -0.0000520636       -2.9610940556       -4.4128820631
O        -3.2540130686        2.9610920992       -3.2399059649
O         3.2540262289        2.9610920992       -3.2399059649
O         3.2540262289       -2.9610949727       -3.2399059649
O        -3.2540130686       -2.9610949727       -3.2399059649
Ti        3.2539521516        1.4805453354       -4.5999132764
Ti        3.2539519558       -1.4805472242       -4.5999128471
Ti       -3.2540871458        1.4805453354       -4.5999132764
Ti       -3.2540873417       -1.4805472242       -4.5999128471
O         0.0000000000        5.9221870719        0.0000000000
O         0.0000000000       -5.9221870719        0.0000000000
O        -4.4727745873        4.4416400710       -1.1114929595
O         4.4727802228        4.4416398453       -1.1114950339
O         4.4727801560       -4.4416418883       -1.1114938569
O        -4.4727739499       -4.4416417926       -1.1114916381
O         0.0000044240        5.9221859521       -2.5484030183
O         0.0000044240       -5.9221881918       -2.5484030183
O        -1.3010679893        4.4416390212       -4.5164494659
O         1.3010909567        4.4416388598       -4.5164549234
O         1.3010910344       -4.4416411618       -4.5164550958
O        -1.3010680445       -4.4416410658       -4.5164496616
O        -6.5080392975        0.0000000000        0.0000000000
O         6.5080392975        0.0000000000        0.0000000000
O        -0.0000030690       -0.0000010023       -6.5133178995
O         3.2540250130       -0.0000010710       -5.7883937487
O        -3.2540142845       -0.0000010710       -5.7883937487
Ti       -6.5080339275        1.4805514970       -1.0689260663
Ti        6.5080446674        1.4805514970       -1.0689260663
Ti        6.5080448185       -1.4805531239       -1.0689213872
Ti       -6.5080337764       -1.4805531239       -1.0689213872
O         6.5080437214       -0.0000011199       -2.5484030183
O        -6.5080348735       -0.0000011199       -2.5484030183
O        -5.2069482631        1.4805459101       -4.5164550958
O         5.2069712530        1.4805460061       -4.5164496616
O         5.2069713081       -1.4805480507       -4.5164494659
O        -5.2069483407       -1.4805482121       -4.5164549234
O        -6.5080396750        2.9610915503       -0.0000027177
O         6.5080389199        2.9610915503       -0.0000027177
O         6.5080389199       -2.9610955216       -0.0000027177
O        -6.5080396750       -2.9610955216       -0.0000027177
O        -0.0000030690        2.9610925336       -6.5133178995
O        -0.0000030690       -2.9610945383       -6.5133178995
O        -3.2540141342        2.9610927557       -5.7883941527
O         3.2540251633        2.9610927557       -5.7883941527
O         3.2540251633       -2.9610943162       -5.7883941527
O        -3.2540141342       -2.9610943162       -5.7883941527
O        -6.5080347975        2.9610919920       -2.5484043820
O         6.5080437974        2.9610919920       -2.5484043820
O         6.5080437974       -2.9610950799       -2.5484043820
O        -6.5080347975       -2.9610950799       -2.5484043820
O        -8.5432984389        1.4805451837       -1.1114938569
O         8.5433046450        1.4805452794       -1.1114916381
O         8.5433040076       -1.4805470010       -1.1114929595
O        -8.5432983721       -1.4805472267       -1.1114950339
Ti       -3.2540161055        5.9221859516       -1.4271620261
Ti        3.2540231919        5.9221859516       -1.4271620261
Ti        3.2540231919       -5.9221881923       -1.4271620261
Ti       -3.2540161055       -5.9221881923       -1.4271620261
Ti        3.2539519558        4.4416398477       -4.5999128471
Ti        3.2539521516       -4.4416417366       -4.5999132764
Ti       -3.2540873417        4.4416398477       -4.5999128471
Ti       -3.2540871458       -4.4416417366       -4.5999132764
Ti       -0.0000522037        5.9221863618       -4.4128839605
Ti       -0.0000522037       -5.9221877821       -4.4128839605
Ti        0.0000053700        7.4027385689       -1.0689260663
Ti        0.0000055210       -7.4027401958       -1.0689213872
Ti        6.5079870937       -0.0000007101       -4.4128839605
Ti       -6.5080915012       -0.0000007101       -4.4128839605
Ti       -0.0000030690        1.4805457657       -7.7854093297
Ti       -0.0000030690       -1.4805477703       -7.7854093297
Ti       -6.5080337764        4.4416339481       -1.0689213872
Ti        6.5080448185        4.4416339481       -1.0689213872
Ti        6.5080446674       -4.4416355749       -1.0689260663
Ti       -6.5080339275       -4.4416355749       -1.0689260663
Ti        6.5079872339        2.9610930164       -4.4128820631
Ti        6.5079872339       -2.9610940556       -4.4128820631
Ti       -6.5080913611        2.9610930164       -4.4128820631
Ti       -6.5080913611       -2.9610940556       -4.4128820631
Ti        3.2540165797       -0.0000010023       -7.7854093297
Ti       -3.2540227177       -0.0000010023       -7.7854093297
Ti       -3.2540227177        2.9610925336       -7.7854093297
Ti        3.2540165797        2.9610925336       -7.7854093297
Ti        3.2540165797       -2.9610945383       -7.7854093297
Ti       -3.2540227177       -2.9610945383       -7.7854093297
Ti       -0.0000030690        4.4416393016       -7.7854093297
Ti       -0.0000030690       -4.4416413063       -7.7854093297
Ti       -3.2540871458        7.4027324073       -4.5999132764
Ti        3.2539521516        7.4027324073       -4.5999132764
Ti        3.2539519558       -7.4027342962       -4.5999128471
Ti       -3.2540873417       -7.4027342962       -4.5999128471
Ti       -3.2540166829        8.8832800975       -1.4271623583
Ti        3.2540226146        8.8832800975       -1.4271623583
Ti        3.2540226146       -8.8832811183       -1.4271623583
Ti       -3.2540166829       -8.8832811183       -1.4271623583
Ti        6.5079870937        5.9221863618       -4.4128839605
Ti        6.5079870937       -5.9221877821       -4.4128839605
Ti       -6.5080915012        5.9221863618       -4.4128839605
Ti       -6.5080915012       -5.9221877821       -4.4128839605
Ti        9.7620624894       -0.0000011204       -1.4271620261
Ti       -9.7620554030       -0.0000011204       -1.4271620261
Ti       -6.5080339275        7.4027385689       -1.0689260663
Ti        6.5080446674        7.4027385689       -1.0689260663
Ti        6.5080448185       -7.4027401958       -1.0689213872
Ti       -6.5080337764       -7.4027401958       -1.0689213872
Ti       -0.0000520636        8.8832800883       -4.4128820631
Ti       -0.0000520636       -8.8832811275       -4.4128820631
Ti       -6.5080423664        1.4805457657       -7.7854093297
Ti        6.5080362285        1.4805457657       -7.7854093297
Ti        6.5080362285       -1.4805477703       -7.7854093297
Ti       -6.5080423664       -1.4805477703       -7.7854093297
Ti       -9.7620559804        2.9610930255       -1.4271623583
Ti        9.7620619120        2.9610930255       -1.4271623583
Ti        9.7620619120       -2.9610940464       -1.4271623583
Ti       -9.7620559804       -2.9610940464       -1.4271623583
Ti       -3.2540227177        5.9221860696       -7.7854093297
Ti        3.2540165797        5.9221860696       -7.7854093297
Ti        3.2540165797       -5.9221880743       -7.7854093297
Ti       -3.2540227177       -5.9221880743       -7.7854093297
Ti        0.0000055210       10.3638210200       -1.0689213872
Ti        0.0000053700      -10.3638226469       -1.0689260663
Ti       -0.0000030690        7.4027328376       -7.7854093297
Ti       -0.0000030690       -7.4027348422       -7.7854093297
Ti        9.7619914491        1.4805453354       -4.5999132764
Ti        9.7619912533       -1.4805472242       -4.5999128471
Ti       -9.7621264433        1.4805453354       -4.5999132764
Ti       -9.7621266391       -1.4805472242       -4.5999128471
Ti       -0.0000030690       -0.0000010023      -11.0394289784
Ti       -6.5080423664        4.4416393016       -7.7854093297
Ti        6.5080362285        4.4416393016       -7.7854093297
Ti        6.5080362285       -4.4416413063       -7.7854093297
Ti       -6.5080423664       -4.4416413063       -7.7854093297
Ti       -0.0000030690        2.9610925336      -11.0394289784
Ti       -0.0000030690       -2.9610945383      -11.0394289784
Ti       -9.7620554030        5.9221859516       -1.4271620261
Ti        9.7620624894        5.9221859516       -1.4271620261
Ti        9.7620624894       -5.9221881923       -1.4271620261
Ti       -9.7620554030       -5.9221881923       -1.4271620261
Ti       -3.2540227177        1.4805457657      -11.0394289784
Ti        3.2540165797        1.4805457657      -11.0394289784
Ti        3.2540165797       -1.4805477703      -11.0394289784
Ti       -3.2540227177       -1.4805477703      -11.0394289784
Ti        9.7619912533        4.4416398477       -4.5999128471
Ti        9.7619914491       -4.4416417366       -4.5999132764
Ti       -9.7621266391        4.4416398477       -4.5999128471
Ti       -9.7621264433       -4.4416417366       -4.5999132764
Ti       -3.2540873417       10.3638269196       -4.5999128471
Ti        3.2539519558       10.3638269196       -4.5999128471
Ti        3.2539521516      -10.3638288085       -4.5999132764
Ti       -3.2540871458      -10.3638288085       -4.5999132764
Ti        6.5079872339        8.8832800883       -4.4128820631
Ti        6.5079872339       -8.8832811275       -4.4128820631
Ti       -6.5080913611        8.8832800883       -4.4128820631
Ti       -6.5080913611       -8.8832811275       -4.4128820631
Ti       -3.2540227177        8.8832796056       -7.7854093297
Ti        3.2540165797        8.8832796056       -7.7854093297
Ti        3.2540165797       -8.8832816102       -7.7854093297
Ti       -3.2540227177       -8.8832816102       -7.7854093297
Ti       -6.5080337764       10.3638210200       -1.0689213872
Ti        6.5080448185       10.3638210200       -1.0689213872
Ti        6.5080446674      -10.3638226469       -1.0689260663
Ti       -6.5080339275      -10.3638226469       -1.0689260663
Ti       -3.2540227177        4.4416393016      -11.0394289784
Ti        3.2540165797        4.4416393016      -11.0394289784
Ti        3.2540165797       -4.4416413063      -11.0394289784
Ti       -3.2540227177       -4.4416413063      -11.0394289784
Ti       -3.2540161055       11.8443730235       -1.4271620261
Ti        3.2540231919       11.8443730235       -1.4271620261
Ti        3.2540231919      -11.8443752642       -1.4271620261
Ti       -3.2540161055      -11.8443752642       -1.4271620261
Ti        9.7620558772       -0.0000010023       -7.7854093297
Ti       -9.7620620152       -0.0000010023       -7.7854093297
Ti       -0.0000030690        5.9221860696      -11.0394289784
Ti       -0.0000030690       -5.9221880743      -11.0394289784
Ti       -6.5080423664        7.4027328376       -7.7854093297
Ti        6.5080362285        7.4027328376       -7.7854093297
Ti        6.5080362285       -7.4027348422       -7.7854093297
Ti       -6.5080423664       -7.4027348422       -7.7854093297
Ti       -0.0000522037       11.8443734337       -4.4128839605
Ti       -0.0000522037      -11.8443748540       -4.4128839605
Ti        6.5080362285       -0.0000010023      -11.0394289784
Ti       -6.5080423664       -0.0000010023      -11.0394289784
Ti       -9.7620620152        2.9610925336       -7.7854093297
Ti        9.7620558772        2.9610925336       -7.7854093297
Ti        9.7620558772       -2.9610945383       -7.7854093297
Ti       -9.7620620152       -2.9610945383       -7.7854093297
Ti       -0.0000030690       10.3638263735       -7.7854093297
Ti       -0.0000030690      -10.3638283782       -7.7854093297
Ti        9.7619914491        7.4027324073       -4.5999132764
Ti        9.7619912533       -7.4027342962       -4.5999128471
Ti       -9.7621264433        7.4027324073       -4.5999132764
Ti       -9.7621266391       -7.4027342962       -4.5999128471
Ti      -13.0160732250        1.4805514970       -1.0689260663
Ti       13.0160839649        1.4805514970       -1.0689260663
Ti       13.0160841159       -1.4805531239       -1.0689213872
Ti      -13.0160730739       -1.4805531239       -1.0689213872
Ti       -6.5080423664        2.9610925336      -11.0394289784
Ti        6.5080362285        2.9610925336      -11.0394289784
Ti        6.5080362285       -2.9610945383      -11.0394289784
Ti       -6.5080423664       -2.9610945383      -11.0394289784
Ti       -9.7620559804        8.8832800975       -1.4271623583
Ti        9.7620619120        8.8832800975       -1.4271623583
Ti        9.7620619120       -8.8832811183       -1.4271623583
Ti       -9.7620559804       -8.8832811183       -1.4271623583
Ti       -3.2540227177        7.4027328376      -11.0394289784
Ti        3.2540165797        7.4027328376      -11.0394289784
Ti        3.2540165797       -7.4027348422      -11.0394289784
Ti       -3.2540227177       -7.4027348422      -11.0394289784
Ti       13.0160263912       -0.0000007101       -4.4128839605
Ti      -13.0161307987       -0.0000007101       -4.4128839605
Ti      -13.0160730739        4.4416339481       -1.0689213872
Ti       13.0160841159        4.4416339481       -1.0689213872
Ti       13.0160839649       -4.4416355749       -1.0689260663
Ti      -13.0160732250       -4.4416355749       -1.0689260663
Ti       -9.7620620152        5.9221860696       -7.7854093297
Ti        9.7620558772        5.9221860696       -7.7854093297
Ti        9.7620558772       -5.9221880743       -7.7854093297
Ti       -9.7620620152       -5.9221880743       -7.7854093297
Ti       13.0160265313        2.9610930164       -4.4128820631
Ti       13.0160265313       -2.9610940556       -4.4128820631
Ti      -13.0161306585        2.9610930164       -4.4128820631
Ti      -13.0161306585       -2.9610940556       -4.4128820631
Ti       -6.5080423664        5.9221860696      -11.0394289784
Ti        6.5080362285        5.9221860696      -11.0394289784
Ti        6.5080362285       -5.9221880743      -11.0394289784
Ti       -6.5080423664       -5.9221880743      -11.0394289784
 
