616       
 
Mg        0.0000000000        0.0000000000        2.1032290641
Mg       -2.1032290641        0.0000000000        0.0000000000
Mg        0.0000000000        2.1032290641        0.0000000000
Mg        2.1032290641        0.0000000000        0.0000000000
Mg        0.0000000000       -2.1032290641        0.0000000000
Mg        0.0000000000        0.0000000000       -2.1032290641
O        -2.1032290641        0.0000000000        2.1032290641
O         0.0000000000        2.1032290641        2.1032290641
O         2.1032290641        0.0000000000        2.1032290641
O         0.0000000000       -2.1032290641        2.1032290641
O        -2.1032290641        2.1032290641        0.0000000000
O         2.1032290641        2.1032290641        0.0000000000
O         2.1032290641       -2.1032290641        0.0000000000
O        -2.1032290641       -2.1032290641        0.0000000000
O        -2.1032290641        0.0000000000       -2.1032290641
O         0.0000000000        2.1032290641       -2.1032290641
O         2.1032290641        0.0000000000       -2.1032290641
O         0.0000000000       -2.1032290641       -2.1032290641
Mg       -2.1032290641        2.1032290641        2.1032290641
Mg        2.1032290641        2.1032290641        2.1032290641
Mg        2.1032290641       -2.1032290641        2.1032290641
Mg       -2.1032290641       -2.1032290641        2.1032290641
Mg       -2.1032290641        2.1032290641       -2.1032290641
Mg        2.1032290641        2.1032290641       -2.1032290641
Mg        2.1032290641       -2.1032290641       -2.1032290641
Mg       -2.1032290641       -2.1032290641       -2.1032290641
O         0.0000000000        0.0000000000        4.2064581283
O        -4.2064581283        0.0000000000        0.0000000000
O         0.0000000000        4.2064581283        0.0000000000
O         4.2064581283        0.0000000000        0.0000000000
O         0.0000000000       -4.2064581283        0.0000000000
O         0.0000000000        0.0000000000       -4.2064581283
Mg       -2.1032290641        0.0000000000        4.2064581283
Mg        0.0000000000        2.1032290641        4.2064581283
Mg        2.1032290641        0.0000000000        4.2064581283
Mg        0.0000000000       -2.1032290641        4.2064581283
Mg       -4.2064581283        0.0000000000        2.1032290641
Mg        0.0000000000        4.2064581283        2.1032290641
Mg        4.2064581283        0.0000000000        2.1032290641
Mg        0.0000000000       -4.2064581283        2.1032290641
Mg       -4.2064581283        2.1032290641        0.0000000000
Mg       -2.1032290641        4.2064581283        0.0000000000
Mg        2.1032290641        4.2064581283        0.0000000000
Mg        4.2064581283        2.1032290641        0.0000000000
Mg        4.2064581283       -2.1032290641        0.0000000000
Mg        2.1032290641       -4.2064581283        0.0000000000
Mg       -2.1032290641       -4.2064581283        0.0000000000
Mg       -4.2064581283       -2.1032290641        0.0000000000
Mg       -4.2064581283        0.0000000000       -2.1032290641
Mg        0.0000000000        4.2064581283       -2.1032290641
Mg        4.2064581283        0.0000000000       -2.1032290641
Mg        0.0000000000       -4.2064581283       -2.1032290641
Mg       -2.1032290641        0.0000000000       -4.2064581283
Mg        0.0000000000        2.1032290641       -4.2064581283
Mg        2.1032290641        0.0000000000       -4.2064581283
Mg        0.0000000000       -2.1032290641       -4.2064581283
O        -2.1032290641        2.1032290641        4.2064581283
O         2.1032290641        2.1032290641        4.2064581283
O         2.1032290641       -2.1032290641        4.2064581283
O        -2.1032290641       -2.1032290641        4.2064581283
O        -4.2064581283        2.1032290641        2.1032290641
O        -2.1032290641        4.2064581283        2.1032290641
O         2.1032290641        4.2064581283        2.1032290641
O         4.2064581283        2.1032290641        2.1032290641
O         4.2064581283       -2.1032290641        2.1032290641
O         2.1032290641       -4.2064581283        2.1032290641
O        -2.1032290641       -4.2064581283        2.1032290641
O        -4.2064581283       -2.1032290641        2.1032290641
O        -4.2064581283        2.1032290641       -2.1032290641
O        -2.1032290641        4.2064581283       -2.1032290641
O         2.1032290641        4.2064581283       -2.1032290641
O         4.2064581283        2.1032290641       -2.1032290641
O         4.2064581283       -2.1032290641       -2.1032290641
O         2.1032290641       -4.2064581283       -2.1032290641
O        -2.1032290641       -4.2064581283       -2.1032290641
O        -4.2064581283       -2.1032290641       -2.1032290641
O        -2.1032290641        2.1032290641       -4.2064581283
O         2.1032290641        2.1032290641       -4.2064581283
O         2.1032290641       -2.1032290641       -4.2064581283
O        -2.1032290641       -2.1032290641       -4.2064581283
O        -4.2064581283        0.0000000000        4.2064581283
O         0.0000000000        4.2064581283        4.2064581283
O         4.2064581283        0.0000000000        4.2064581283
O         0.0000000000       -4.2064581283        4.2064581283
O        -4.2064581283        4.2064581283        0.0000000000
O         4.2064581283        4.2064581283        0.0000000000
O         4.2064581283       -4.2064581283        0.0000000000
O        -4.2064581283       -4.2064581283        0.0000000000
O        -4.2064581283        0.0000000000       -4.2064581283
O         0.0000000000        4.2064581283       -4.2064581283
O         4.2064581283        0.0000000000       -4.2064581283
O         0.0000000000       -4.2064581283       -4.2064581283
O        -2.1032290641        0.0000000000        6.3096871924
O         0.0000000000        2.1032290641        6.3096871924
O         2.1032290641        0.0000000000        6.3096871924
O         0.0000000000       -2.1032290641        6.3096871924
O        -6.3096871924        0.0000000000        2.1032290641
O         0.0000000000        6.3096871924        2.1032290641
O         6.3096871924        0.0000000000        2.1032290641
O         0.0000000000       -6.3096871924        2.1032290641
O        -6.3096871924        2.1032290641        0.0000000000
O        -2.1032290641        6.3096871924        0.0000000000
O         2.1032290641        6.3096871924        0.0000000000
O         6.3096871924        2.1032290641        0.0000000000
O         6.3096871924       -2.1032290641        0.0000000000
O         2.1032290641       -6.3096871924        0.0000000000
O        -2.1032290641       -6.3096871924        0.0000000000
O        -6.3096871924       -2.1032290641        0.0000000000
O        -6.3096871924        0.0000000000       -2.1032290641
O         0.0000000000        6.3096871924       -2.1032290641
O         6.3096871924        0.0000000000       -2.1032290641
O         0.0000000000       -6.3096871924       -2.1032290641
O        -2.1032290641        0.0000000000       -6.3096871924
O         0.0000000000        2.1032290641       -6.3096871924
O         2.1032290641        0.0000000000       -6.3096871924
O         0.0000000000       -2.1032290641       -6.3096871924
Mg        0.0000000000        0.0000000000        6.3096871924
Mg       -4.2064581283        2.1032290641        4.2064581283
Mg       -2.1032290641        4.2064581283        4.2064581283
Mg        2.1032290641        4.2064581283        4.2064581283
Mg        4.2064581283        2.1032290641        4.2064581283
Mg        4.2064581283       -2.1032290641        4.2064581283
Mg        2.1032290641       -4.2064581283        4.2064581283
Mg       -2.1032290641       -4.2064581283        4.2064581283
Mg       -4.2064581283       -2.1032290641        4.2064581283
Mg       -4.2064581283        4.2064581283        2.1032290641
Mg        4.2064581283        4.2064581283        2.1032290641
Mg        4.2064581283       -4.2064581283        2.1032290641
Mg       -4.2064581283       -4.2064581283        2.1032290641
Mg       -6.3096871924        0.0000000000        0.0000000000
Mg        0.0000000000        6.3096871924        0.0000000000
Mg        6.3096871924        0.0000000000        0.0000000000
Mg        0.0000000000       -6.3096871924        0.0000000000
Mg       -4.2064581283        4.2064581283       -2.1032290641
Mg        4.2064581283        4.2064581283       -2.1032290641
Mg        4.2064581283       -4.2064581283       -2.1032290641
Mg       -4.2064581283       -4.2064581283       -2.1032290641
Mg       -4.2064581283        2.1032290641       -4.2064581283
Mg       -2.1032290641        4.2064581283       -4.2064581283
Mg        2.1032290641        4.2064581283       -4.2064581283
Mg        4.2064581283        2.1032290641       -4.2064581283
Mg        4.2064581283       -2.1032290641       -4.2064581283
Mg        2.1032290641       -4.2064581283       -4.2064581283
Mg       -2.1032290641       -4.2064581283       -4.2064581283
Mg       -4.2064581283       -2.1032290641       -4.2064581283
Mg        0.0000000000        0.0000000000       -6.3096871924
Mg       -2.1032290641        2.1032290641        6.3096871924
Mg        2.1032290641        2.1032290641        6.3096871924
Mg        2.1032290641       -2.1032290641        6.3096871924
Mg       -2.1032290641       -2.1032290641        6.3096871924
Mg       -6.3096871924        2.1032290641        2.1032290641
Mg       -2.1032290641        6.3096871924        2.1032290641
Mg        2.1032290641        6.3096871924        2.1032290641
Mg        6.3096871924        2.1032290641        2.1032290641
Mg        6.3096871924       -2.1032290641        2.1032290641
Mg        2.1032290641       -6.3096871924        2.1032290641
Mg       -2.1032290641       -6.3096871924        2.1032290641
Mg       -6.3096871924       -2.1032290641        2.1032290641
Mg       -6.3096871924        2.1032290641       -2.1032290641
Mg       -2.1032290641        6.3096871924       -2.1032290641
Mg        2.1032290641        6.3096871924       -2.1032290641
Mg        6.3096871924        2.1032290641       -2.1032290641
Mg        6.3096871924       -2.1032290641       -2.1032290641
Mg        2.1032290641       -6.3096871924       -2.1032290641
Mg       -2.1032290641       -6.3096871924       -2.1032290641
Mg       -6.3096871924       -2.1032290641       -2.1032290641
Mg       -2.1032290641        2.1032290641       -6.3096871924
Mg        2.1032290641        2.1032290641       -6.3096871924
Mg        2.1032290641       -2.1032290641       -6.3096871924
Mg       -2.1032290641       -2.1032290641       -6.3096871924
Mg       -4.2064581283        0.0000000000        6.3096871924
Mg        0.0000000000        4.2064581283        6.3096871924
Mg        4.2064581283        0.0000000000        6.3096871924
Mg        0.0000000000       -4.2064581283        6.3096871924
Mg       -6.3096871924        0.0000000000        4.2064581283
Mg        0.0000000000        6.3096871924        4.2064581283
Mg        6.3096871924        0.0000000000        4.2064581283
Mg        0.0000000000       -6.3096871924        4.2064581283
Mg       -6.3096871924        4.2064581283        0.0000000000
Mg       -4.2064581283        6.3096871924        0.0000000000
Mg        4.2064581283        6.3096871924        0.0000000000
Mg        6.3096871924        4.2064581283        0.0000000000
Mg        6.3096871924       -4.2064581283        0.0000000000
Mg        4.2064581283       -6.3096871924        0.0000000000
Mg       -4.2064581283       -6.3096871924        0.0000000000
Mg       -6.3096871924       -4.2064581283        0.0000000000
Mg       -6.3096871924        0.0000000000       -4.2064581283
Mg        0.0000000000        6.3096871924       -4.2064581283
Mg        6.3096871924        0.0000000000       -4.2064581283
Mg        0.0000000000       -6.3096871924       -4.2064581283
Mg       -4.2064581283        0.0000000000       -6.3096871924
Mg        0.0000000000        4.2064581283       -6.3096871924
Mg        4.2064581283        0.0000000000       -6.3096871924
Mg        0.0000000000       -4.2064581283       -6.3096871924
Mg       -2.1032290641        0.0000000000        8.4129162566
Mg        0.0000000000        2.1032290641        8.4129162566
Mg        2.1032290641        0.0000000000        8.4129162566
Mg        0.0000000000       -2.1032290641        8.4129162566
Mg       -4.2064581283        4.2064581283        6.3096871924
Mg        4.2064581283        4.2064581283        6.3096871924
Mg        4.2064581283       -4.2064581283        6.3096871924
Mg       -4.2064581283       -4.2064581283        6.3096871924
Mg       -6.3096871924        4.2064581283        4.2064581283
Mg       -4.2064581283        6.3096871924        4.2064581283
Mg        4.2064581283        6.3096871924        4.2064581283
Mg        6.3096871924        4.2064581283        4.2064581283
Mg        6.3096871924       -4.2064581283        4.2064581283
Mg        4.2064581283       -6.3096871924        4.2064581283
Mg       -4.2064581283       -6.3096871924        4.2064581283
Mg       -6.3096871924       -4.2064581283        4.2064581283
Mg       -8.4129162566        0.0000000000        2.1032290641
Mg        0.0000000000        8.4129162566        2.1032290641
Mg        8.4129162566        0.0000000000        2.1032290641
Mg        0.0000000000       -8.4129162566        2.1032290641
Mg       -8.4129162566        2.1032290641        0.0000000000
Mg       -2.1032290641        8.4129162566        0.0000000000
Mg        2.1032290641        8.4129162566        0.0000000000
Mg        8.4129162566        2.1032290641        0.0000000000
Mg        8.4129162566       -2.1032290641        0.0000000000
Mg        2.1032290641       -8.4129162566        0.0000000000
Mg       -2.1032290641       -8.4129162566        0.0000000000
Mg       -8.4129162566       -2.1032290641        0.0000000000
Mg       -8.4129162566        0.0000000000       -2.1032290641
Mg        0.0000000000        8.4129162566       -2.1032290641
Mg        8.4129162566        0.0000000000       -2.1032290641
Mg        0.0000000000       -8.4129162566       -2.1032290641
Mg       -6.3096871924        4.2064581283       -4.2064581283
Mg       -4.2064581283        6.3096871924       -4.2064581283
Mg        4.2064581283        6.3096871924       -4.2064581283
Mg        6.3096871924        4.2064581283       -4.2064581283
Mg        6.3096871924       -4.2064581283       -4.2064581283
Mg        4.2064581283       -6.3096871924       -4.2064581283
Mg       -4.2064581283       -6.3096871924       -4.2064581283
Mg       -6.3096871924       -4.2064581283       -4.2064581283
Mg       -4.2064581283        4.2064581283       -6.3096871924
Mg        4.2064581283        4.2064581283       -6.3096871924
Mg        4.2064581283       -4.2064581283       -6.3096871924
Mg       -4.2064581283       -4.2064581283       -6.3096871924
Mg       -2.1032290641        0.0000000000       -8.4129162566
Mg        0.0000000000        2.1032290641       -8.4129162566
Mg        2.1032290641        0.0000000000       -8.4129162566
Mg        0.0000000000       -2.1032290641       -8.4129162566
Mg       -6.3096871924        2.1032290641        6.3096871924
Mg       -2.1032290641        6.3096871924        6.3096871924
Mg        2.1032290641        6.3096871924        6.3096871924
Mg        6.3096871924        2.1032290641        6.3096871924
Mg        6.3096871924       -2.1032290641        6.3096871924
Mg        2.1032290641       -6.3096871924        6.3096871924
Mg       -2.1032290641       -6.3096871924        6.3096871924
Mg       -6.3096871924       -2.1032290641        6.3096871924
Mg       -6.3096871924        6.3096871924        2.1032290641
Mg        6.3096871924        6.3096871924        2.1032290641
Mg        6.3096871924       -6.3096871924        2.1032290641
Mg       -6.3096871924       -6.3096871924        2.1032290641
Mg       -6.3096871924        6.3096871924       -2.1032290641
Mg        6.3096871924        6.3096871924       -2.1032290641
Mg        6.3096871924       -6.3096871924       -2.1032290641
Mg       -6.3096871924       -6.3096871924       -2.1032290641
Mg       -6.3096871924        2.1032290641       -6.3096871924
Mg       -2.1032290641        6.3096871924       -6.3096871924
Mg        2.1032290641        6.3096871924       -6.3096871924
Mg        6.3096871924        2.1032290641       -6.3096871924
Mg        6.3096871924       -2.1032290641       -6.3096871924
Mg        2.1032290641       -6.3096871924       -6.3096871924
Mg       -2.1032290641       -6.3096871924       -6.3096871924
Mg       -6.3096871924       -2.1032290641       -6.3096871924
Mg       -4.2064581283        2.1032290641        8.4129162566
Mg       -2.1032290641        4.2064581283        8.4129162566
Mg        2.1032290641        4.2064581283        8.4129162566
Mg        4.2064581283        2.1032290641        8.4129162566
Mg        4.2064581283       -2.1032290641        8.4129162566
Mg        2.1032290641       -4.2064581283        8.4129162566
Mg       -2.1032290641       -4.2064581283        8.4129162566
Mg       -4.2064581283       -2.1032290641        8.4129162566
Mg       -8.4129162566        2.1032290641        4.2064581283
Mg       -2.1032290641        8.4129162566        4.2064581283
Mg        2.1032290641        8.4129162566        4.2064581283
Mg        8.4129162566        2.1032290641        4.2064581283
Mg        8.4129162566       -2.1032290641        4.2064581283
Mg        2.1032290641       -8.4129162566        4.2064581283
Mg       -2.1032290641       -8.4129162566        4.2064581283
Mg       -8.4129162566       -2.1032290641        4.2064581283
Mg       -8.4129162566        4.2064581283        2.1032290641
Mg       -4.2064581283        8.4129162566        2.1032290641
Mg        4.2064581283        8.4129162566        2.1032290641
Mg        8.4129162566        4.2064581283        2.1032290641
Mg        8.4129162566       -4.2064581283        2.1032290641
Mg        4.2064581283       -8.4129162566        2.1032290641
Mg       -4.2064581283       -8.4129162566        2.1032290641
Mg       -8.4129162566       -4.2064581283        2.1032290641
Mg       -8.4129162566        4.2064581283       -2.1032290641
Mg       -4.2064581283        8.4129162566       -2.1032290641
Mg        4.2064581283        8.4129162566       -2.1032290641
Mg        8.4129162566        4.2064581283       -2.1032290641
Mg        8.4129162566       -4.2064581283       -2.1032290641
Mg        4.2064581283       -8.4129162566       -2.1032290641
Mg       -4.2064581283       -8.4129162566       -2.1032290641
Mg       -8.4129162566       -4.2064581283       -2.1032290641
Mg       -8.4129162566        2.1032290641       -4.2064581283
Mg       -2.1032290641        8.4129162566       -4.2064581283
Mg        2.1032290641        8.4129162566       -4.2064581283
Mg        8.4129162566        2.1032290641       -4.2064581283
Mg        8.4129162566       -2.1032290641       -4.2064581283
Mg        2.1032290641       -8.4129162566       -4.2064581283
Mg       -2.1032290641       -8.4129162566       -4.2064581283
Mg       -8.4129162566       -2.1032290641       -4.2064581283
Mg       -4.2064581283        2.1032290641       -8.4129162566
Mg       -2.1032290641        4.2064581283       -8.4129162566
Mg        2.1032290641        4.2064581283       -8.4129162566
Mg        4.2064581283        2.1032290641       -8.4129162566
Mg        4.2064581283       -2.1032290641       -8.4129162566
Mg        2.1032290641       -4.2064581283       -8.4129162566
Mg       -2.1032290641       -4.2064581283       -8.4129162566
Mg       -4.2064581283       -2.1032290641       -8.4129162566
Mg        0.0000000000        0.0000000000       10.5161453207
Mg       -6.3096871924        0.0000000000        8.4129162566
Mg        0.0000000000        6.3096871924        8.4129162566
Mg        6.3096871924        0.0000000000        8.4129162566
Mg        0.0000000000       -6.3096871924        8.4129162566
Mg       -8.4129162566        0.0000000000        6.3096871924
Mg        0.0000000000        8.4129162566        6.3096871924
Mg        8.4129162566        0.0000000000        6.3096871924
Mg        0.0000000000       -8.4129162566        6.3096871924
Mg      -10.5161453207        0.0000000000        0.0000000000
Mg       -8.4129162566        6.3096871924        0.0000000000
Mg       -6.3096871924        8.4129162566        0.0000000000
Mg        0.0000000000       10.5161453207        0.0000000000
Mg        6.3096871924        8.4129162566        0.0000000000
Mg        8.4129162566        6.3096871924        0.0000000000
Mg       10.5161453207        0.0000000000        0.0000000000
Mg        8.4129162566       -6.3096871924        0.0000000000
Mg        6.3096871924       -8.4129162566        0.0000000000
Mg        0.0000000000      -10.5161453207        0.0000000000
Mg       -6.3096871924       -8.4129162566        0.0000000000
Mg       -8.4129162566       -6.3096871924        0.0000000000
Mg       -8.4129162566        0.0000000000       -6.3096871924
Mg        0.0000000000        8.4129162566       -6.3096871924
Mg        8.4129162566        0.0000000000       -6.3096871924
Mg        0.0000000000       -8.4129162566       -6.3096871924
Mg       -6.3096871924        0.0000000000       -8.4129162566
Mg        0.0000000000        6.3096871924       -8.4129162566
Mg        6.3096871924        0.0000000000       -8.4129162566
Mg        0.0000000000       -6.3096871924       -8.4129162566
Mg        0.0000000000        0.0000000000      -10.5161453207
Mg       -2.1032290641        2.1032290641       10.5161453207
Mg        2.1032290641        2.1032290641       10.5161453207
Mg        2.1032290641       -2.1032290641       10.5161453207
Mg       -2.1032290641       -2.1032290641       10.5161453207
Mg       -6.3096871924        6.3096871924        6.3096871924
Mg        6.3096871924        6.3096871924        6.3096871924
Mg        6.3096871924       -6.3096871924        6.3096871924
Mg       -6.3096871924       -6.3096871924        6.3096871924
Mg      -10.5161453207        2.1032290641        2.1032290641
Mg       -2.1032290641       10.5161453207        2.1032290641
Mg        2.1032290641       10.5161453207        2.1032290641
Mg       10.5161453207        2.1032290641        2.1032290641
Mg       10.5161453207       -2.1032290641        2.1032290641
Mg        2.1032290641      -10.5161453207        2.1032290641
Mg       -2.1032290641      -10.5161453207        2.1032290641
Mg      -10.5161453207       -2.1032290641        2.1032290641
Mg      -10.5161453207        2.1032290641       -2.1032290641
Mg       -2.1032290641       10.5161453207       -2.1032290641
Mg        2.1032290641       10.5161453207       -2.1032290641
Mg       10.5161453207        2.1032290641       -2.1032290641
Mg       10.5161453207       -2.1032290641       -2.1032290641
Mg        2.1032290641      -10.5161453207       -2.1032290641
Mg       -2.1032290641      -10.5161453207       -2.1032290641
Mg      -10.5161453207       -2.1032290641       -2.1032290641
Mg       -6.3096871924        6.3096871924       -6.3096871924
Mg        6.3096871924        6.3096871924       -6.3096871924
Mg        6.3096871924       -6.3096871924       -6.3096871924
Mg       -6.3096871924       -6.3096871924       -6.3096871924
Mg       -2.1032290641        2.1032290641      -10.5161453207
Mg        2.1032290641        2.1032290641      -10.5161453207
Mg        2.1032290641       -2.1032290641      -10.5161453207
Mg       -2.1032290641       -2.1032290641      -10.5161453207
Mg       -4.2064581283        0.0000000000       10.5161453207
Mg        0.0000000000        4.2064581283       10.5161453207
Mg        4.2064581283        0.0000000000       10.5161453207
Mg        0.0000000000       -4.2064581283       10.5161453207
Mg       -6.3096871924        4.2064581283        8.4129162566
Mg       -4.2064581283        6.3096871924        8.4129162566
Mg        4.2064581283        6.3096871924        8.4129162566
Mg        6.3096871924        4.2064581283        8.4129162566
Mg        6.3096871924       -4.2064581283        8.4129162566
Mg        4.2064581283       -6.3096871924        8.4129162566
Mg       -4.2064581283       -6.3096871924        8.4129162566
Mg       -6.3096871924       -4.2064581283        8.4129162566
Mg       -8.4129162566        4.2064581283        6.3096871924
Mg       -4.2064581283        8.4129162566        6.3096871924
Mg        4.2064581283        8.4129162566        6.3096871924
Mg        8.4129162566        4.2064581283        6.3096871924
Mg        8.4129162566       -4.2064581283        6.3096871924
Mg        4.2064581283       -8.4129162566        6.3096871924
Mg       -4.2064581283       -8.4129162566        6.3096871924
Mg       -8.4129162566       -4.2064581283        6.3096871924
Mg      -10.5161453207        0.0000000000        4.2064581283
Mg       -8.4129162566        6.3096871924        4.2064581283
Mg       -6.3096871924        8.4129162566        4.2064581283
Mg        0.0000000000       10.5161453207        4.2064581283
Mg        6.3096871924        8.4129162566        4.2064581283
Mg        8.4129162566        6.3096871924        4.2064581283
Mg       10.5161453207        0.0000000000        4.2064581283
Mg        8.4129162566       -6.3096871924        4.2064581283
Mg        6.3096871924       -8.4129162566        4.2064581283
Mg        0.0000000000      -10.5161453207        4.2064581283
Mg       -6.3096871924       -8.4129162566        4.2064581283
Mg       -8.4129162566       -6.3096871924        4.2064581283
Mg      -10.5161453207        4.2064581283        0.0000000000
Mg       -4.2064581283       10.5161453207        0.0000000000
Mg        4.2064581283       10.5161453207        0.0000000000
Mg       10.5161453207        4.2064581283        0.0000000000
Mg       10.5161453207       -4.2064581283        0.0000000000
Mg        4.2064581283      -10.5161453207        0.0000000000
Mg       -4.2064581283      -10.5161453207        0.0000000000
Mg      -10.5161453207       -4.2064581283        0.0000000000
Mg      -10.5161453207        0.0000000000       -4.2064581283
Mg       -8.4129162566        6.3096871924       -4.2064581283
Mg       -6.3096871924        8.4129162566       -4.2064581283
Mg        0.0000000000       10.5161453207       -4.2064581283
Mg        6.3096871924        8.4129162566       -4.2064581283
Mg        8.4129162566        6.3096871924       -4.2064581283
Mg       10.5161453207        0.0000000000       -4.2064581283
Mg        8.4129162566       -6.3096871924       -4.2064581283
Mg        6.3096871924       -8.4129162566       -4.2064581283
Mg        0.0000000000      -10.5161453207       -4.2064581283
Mg       -6.3096871924       -8.4129162566       -4.2064581283
Mg       -8.4129162566       -6.3096871924       -4.2064581283
Mg       -8.4129162566        4.2064581283       -6.3096871924
Mg       -4.2064581283        8.4129162566       -6.3096871924
Mg        4.2064581283        8.4129162566       -6.3096871924
Mg        8.4129162566        4.2064581283       -6.3096871924
Mg        8.4129162566       -4.2064581283       -6.3096871924
Mg        4.2064581283       -8.4129162566       -6.3096871924
Mg       -4.2064581283       -8.4129162566       -6.3096871924
Mg       -8.4129162566       -4.2064581283       -6.3096871924
Mg       -6.3096871924        4.2064581283       -8.4129162566
Mg       -4.2064581283        6.3096871924       -8.4129162566
Mg        4.2064581283        6.3096871924       -8.4129162566
Mg        6.3096871924        4.2064581283       -8.4129162566
Mg        6.3096871924       -4.2064581283       -8.4129162566
Mg        4.2064581283       -6.3096871924       -8.4129162566
Mg       -4.2064581283       -6.3096871924       -8.4129162566
Mg       -6.3096871924       -4.2064581283       -8.4129162566
Mg       -4.2064581283        0.0000000000      -10.5161453207
Mg        0.0000000000        4.2064581283      -10.5161453207
Mg        4.2064581283        0.0000000000      -10.5161453207
Mg        0.0000000000       -4.2064581283      -10.5161453207
Mg       -4.2064581283        4.2064581283       10.5161453207
Mg        4.2064581283        4.2064581283       10.5161453207
Mg        4.2064581283       -4.2064581283       10.5161453207
Mg       -4.2064581283       -4.2064581283       10.5161453207
Mg       -8.4129162566        2.1032290641        8.4129162566
Mg       -2.1032290641        8.4129162566        8.4129162566
Mg        2.1032290641        8.4129162566        8.4129162566
Mg        8.4129162566        2.1032290641        8.4129162566
Mg        8.4129162566       -2.1032290641        8.4129162566
Mg        2.1032290641       -8.4129162566        8.4129162566
Mg       -2.1032290641       -8.4129162566        8.4129162566
Mg       -8.4129162566       -2.1032290641        8.4129162566
Mg      -10.5161453207        4.2064581283        4.2064581283
Mg       -4.2064581283       10.5161453207        4.2064581283
Mg        4.2064581283       10.5161453207        4.2064581283
Mg       10.5161453207        4.2064581283        4.2064581283
Mg       10.5161453207       -4.2064581283        4.2064581283
Mg        4.2064581283      -10.5161453207        4.2064581283
Mg       -4.2064581283      -10.5161453207        4.2064581283
Mg      -10.5161453207       -4.2064581283        4.2064581283
Mg       -8.4129162566        8.4129162566        2.1032290641
Mg        8.4129162566        8.4129162566        2.1032290641
Mg        8.4129162566       -8.4129162566        2.1032290641
Mg       -8.4129162566       -8.4129162566        2.1032290641
Mg       -8.4129162566        8.4129162566       -2.1032290641
Mg        8.4129162566        8.4129162566       -2.1032290641
Mg        8.4129162566       -8.4129162566       -2.1032290641
Mg       -8.4129162566       -8.4129162566       -2.1032290641
Mg      -10.5161453207        4.2064581283       -4.2064581283
Mg       -4.2064581283       10.5161453207       -4.2064581283
Mg        4.2064581283       10.5161453207       -4.2064581283
Mg       10.5161453207        4.2064581283       -4.2064581283
Mg       10.5161453207       -4.2064581283       -4.2064581283
Mg        4.2064581283      -10.5161453207       -4.2064581283
Mg       -4.2064581283      -10.5161453207       -4.2064581283
Mg      -10.5161453207       -4.2064581283       -4.2064581283
Mg       -8.4129162566        2.1032290641       -8.4129162566
Mg       -2.1032290641        8.4129162566       -8.4129162566
Mg        2.1032290641        8.4129162566       -8.4129162566
Mg        8.4129162566        2.1032290641       -8.4129162566
Mg        8.4129162566       -2.1032290641       -8.4129162566
Mg        2.1032290641       -8.4129162566       -8.4129162566
Mg       -2.1032290641       -8.4129162566       -8.4129162566
Mg       -8.4129162566       -2.1032290641       -8.4129162566
Mg       -4.2064581283        4.2064581283      -10.5161453207
Mg        4.2064581283        4.2064581283      -10.5161453207
Mg        4.2064581283       -4.2064581283      -10.5161453207
Mg       -4.2064581283       -4.2064581283      -10.5161453207
Mg       -6.3096871924        2.1032290641       10.5161453207
Mg       -2.1032290641        6.3096871924       10.5161453207
Mg        2.1032290641        6.3096871924       10.5161453207
Mg        6.3096871924        2.1032290641       10.5161453207
Mg        6.3096871924       -2.1032290641       10.5161453207
Mg        2.1032290641       -6.3096871924       10.5161453207
Mg       -2.1032290641       -6.3096871924       10.5161453207
Mg       -6.3096871924       -2.1032290641       10.5161453207
Mg      -10.5161453207        2.1032290641        6.3096871924
Mg       -2.1032290641       10.5161453207        6.3096871924
Mg        2.1032290641       10.5161453207        6.3096871924
Mg       10.5161453207        2.1032290641        6.3096871924
Mg       10.5161453207       -2.1032290641        6.3096871924
Mg        2.1032290641      -10.5161453207        6.3096871924
Mg       -2.1032290641      -10.5161453207        6.3096871924
Mg      -10.5161453207       -2.1032290641        6.3096871924
Mg      -10.5161453207        6.3096871924        2.1032290641
Mg       -6.3096871924       10.5161453207        2.1032290641
Mg        6.3096871924       10.5161453207        2.1032290641
Mg       10.5161453207        6.3096871924        2.1032290641
Mg       10.5161453207       -6.3096871924        2.1032290641
Mg        6.3096871924      -10.5161453207        2.1032290641
Mg       -6.3096871924      -10.5161453207        2.1032290641
Mg      -10.5161453207       -6.3096871924        2.1032290641
Mg      -10.5161453207        6.3096871924       -2.1032290641
Mg       -6.3096871924       10.5161453207       -2.1032290641
Mg        6.3096871924       10.5161453207       -2.1032290641
Mg       10.5161453207        6.3096871924       -2.1032290641
Mg       10.5161453207       -6.3096871924       -2.1032290641
Mg        6.3096871924      -10.5161453207       -2.1032290641
Mg       -6.3096871924      -10.5161453207       -2.1032290641
Mg      -10.5161453207       -6.3096871924       -2.1032290641
Mg      -10.5161453207        2.1032290641       -6.3096871924
Mg       -2.1032290641       10.5161453207       -6.3096871924
Mg        2.1032290641       10.5161453207       -6.3096871924
Mg       10.5161453207        2.1032290641       -6.3096871924
Mg       10.5161453207       -2.1032290641       -6.3096871924
Mg        2.1032290641      -10.5161453207       -6.3096871924
Mg       -2.1032290641      -10.5161453207       -6.3096871924
Mg      -10.5161453207       -2.1032290641       -6.3096871924
Mg       -6.3096871924        2.1032290641      -10.5161453207
Mg       -2.1032290641        6.3096871924      -10.5161453207
Mg        2.1032290641        6.3096871924      -10.5161453207
Mg        6.3096871924        2.1032290641      -10.5161453207
Mg        6.3096871924       -2.1032290641      -10.5161453207
Mg        2.1032290641       -6.3096871924      -10.5161453207
Mg       -2.1032290641       -6.3096871924      -10.5161453207
Mg       -6.3096871924       -2.1032290641      -10.5161453207
Mg       -2.1032290641        0.0000000000       12.6193743848
Mg        0.0000000000        2.1032290641       12.6193743848
Mg        2.1032290641        0.0000000000       12.6193743848
Mg        0.0000000000       -2.1032290641       12.6193743848
Mg      -12.6193743848        0.0000000000        2.1032290641
Mg        0.0000000000       12.6193743848        2.1032290641
Mg       12.6193743848        0.0000000000        2.1032290641
Mg        0.0000000000      -12.6193743848        2.1032290641
Mg      -12.6193743848        2.1032290641        0.0000000000
Mg       -2.1032290641       12.6193743848        0.0000000000
Mg        2.1032290641       12.6193743848        0.0000000000
Mg       12.6193743848        2.1032290641        0.0000000000
Mg       12.6193743848       -2.1032290641        0.0000000000
Mg        2.1032290641      -12.6193743848        0.0000000000
Mg       -2.1032290641      -12.6193743848        0.0000000000
Mg      -12.6193743848       -2.1032290641        0.0000000000
Mg      -12.6193743848        0.0000000000       -2.1032290641
Mg        0.0000000000       12.6193743848       -2.1032290641
Mg       12.6193743848        0.0000000000       -2.1032290641
Mg        0.0000000000      -12.6193743848       -2.1032290641
Mg       -2.1032290641        0.0000000000      -12.6193743848
Mg        0.0000000000        2.1032290641      -12.6193743848
Mg        2.1032290641        0.0000000000      -12.6193743848
Mg        0.0000000000       -2.1032290641      -12.6193743848
Mg       -4.2064581283        2.1032290641       12.6193743848
Mg       -2.1032290641        4.2064581283       12.6193743848
Mg        2.1032290641        4.2064581283       12.6193743848
Mg        4.2064581283        2.1032290641       12.6193743848
Mg        4.2064581283       -2.1032290641       12.6193743848
Mg        2.1032290641       -4.2064581283       12.6193743848
Mg       -2.1032290641       -4.2064581283       12.6193743848
Mg       -4.2064581283       -2.1032290641       12.6193743848
Mg      -12.6193743848        2.1032290641        4.2064581283
Mg       -2.1032290641       12.6193743848        4.2064581283
Mg        2.1032290641       12.6193743848        4.2064581283
Mg       12.6193743848        2.1032290641        4.2064581283
Mg       12.6193743848       -2.1032290641        4.2064581283
Mg        2.1032290641      -12.6193743848        4.2064581283
Mg       -2.1032290641      -12.6193743848        4.2064581283
Mg      -12.6193743848       -2.1032290641        4.2064581283
Mg      -12.6193743848        4.2064581283        2.1032290641
Mg       -4.2064581283       12.6193743848        2.1032290641
Mg        4.2064581283       12.6193743848        2.1032290641
Mg       12.6193743848        4.2064581283        2.1032290641
Mg       12.6193743848       -4.2064581283        2.1032290641
Mg        4.2064581283      -12.6193743848        2.1032290641
Mg       -4.2064581283      -12.6193743848        2.1032290641
Mg      -12.6193743848       -4.2064581283        2.1032290641
Mg      -12.6193743848        4.2064581283       -2.1032290641
Mg       -4.2064581283       12.6193743848       -2.1032290641
Mg        4.2064581283       12.6193743848       -2.1032290641
Mg       12.6193743848        4.2064581283       -2.1032290641
Mg       12.6193743848       -4.2064581283       -2.1032290641
Mg        4.2064581283      -12.6193743848       -2.1032290641
Mg       -4.2064581283      -12.6193743848       -2.1032290641
Mg      -12.6193743848       -4.2064581283       -2.1032290641
Mg      -12.6193743848        2.1032290641       -4.2064581283
Mg       -2.1032290641       12.6193743848       -4.2064581283
Mg        2.1032290641       12.6193743848       -4.2064581283
Mg       12.6193743848        2.1032290641       -4.2064581283
Mg       12.6193743848       -2.1032290641       -4.2064581283
Mg        2.1032290641      -12.6193743848       -4.2064581283
Mg       -2.1032290641      -12.6193743848       -4.2064581283
Mg      -12.6193743848       -2.1032290641       -4.2064581283
Mg       -4.2064581283        2.1032290641      -12.6193743848
Mg       -2.1032290641        4.2064581283      -12.6193743848
Mg        2.1032290641        4.2064581283      -12.6193743848
Mg        4.2064581283        2.1032290641      -12.6193743848
Mg        4.2064581283       -2.1032290641      -12.6193743848
Mg        2.1032290641       -4.2064581283      -12.6193743848
Mg       -2.1032290641       -4.2064581283      -12.6193743848
Mg       -4.2064581283       -2.1032290641      -12.6193743848
 
