28
Properties=species:S:1:pos:R:3 test=T pbc="F F F"
O        0.00000000       0.00000000       0.00000000
Ti       0.00000000       1.48054677      -1.27209143
Ti       0.00000000      -1.48054677      -1.27209143
Ti       0.00000000       0.00000000       1.98192822
O       -0.00000000       0.00000000      -2.54418286
O       -1.27209143       1.48054677       1.98192822
O        1.27209143       1.48054677       1.98192822
O        1.27209143      -1.48054677       1.98192822
O       -1.27209143      -1.48054677       1.98192822
O       -1.98192822       1.48054677      -1.27209143
O        1.98192822       1.48054677      -1.27209143
O        1.98192822      -1.48054677      -1.27209143
O       -1.98192822      -1.48054677      -1.27209143
O        0.00000000       2.96109354       0.00000000
O        0.00000000      -2.96109354       0.00000000
O       -3.25401965       0.00000000       0.70983679
O        3.25401965       0.00000000       0.70983679
Ti      -3.25401965       0.00000000      -1.27209143
Ti       3.25401965       0.00000000      -1.27209143
O       -0.00000000       2.96109354      -2.54418286
O       -0.00000000      -2.96109354      -2.54418286
O       -0.00000000       0.00000000       3.96385644
O       -3.25401965       0.00000000      -3.25401965
O        3.25401965       0.00000000      -3.25401965
O       -4.52611108       1.48054677      -1.27209143
O        4.52611108       1.48054677      -1.27209143
O        4.52611108      -1.48054677      -1.27209143
O       -4.52611108      -1.48054677      -1.27209143
