89
title                                                                                                                           
   O     0.000000000     0.000000000     0.000000000
  Ti     0.000000000     1.480546347    -1.272091068
  Ti     0.000000000    -1.480546347    -1.272091068
  Ti     0.000000000     0.000000000     1.981927655
   O    -0.000000000     0.000000000    -2.544182136
   O    -1.272091068     1.480546347     1.981927655
   O     1.272091068     1.480546347     1.981927655
   O     1.272091068    -1.480546347     1.981927655
   O    -1.272091068    -1.480546347     1.981927655
   O    -1.981927655     1.480546347    -1.272091068
   O     1.981927655     1.480546347    -1.272091068
   O     1.981927655    -1.480546347    -1.272091068
   O    -1.981927655    -1.480546347    -1.272091068
   O     0.000000000     2.961092693     0.000000000
   O     0.000000000    -2.961092693     0.000000000
   O    -3.254018723     0.000000000     0.709836586
   O     3.254018723     0.000000000     0.709836586
  Ti    -3.254018723     0.000000000    -1.272091068
  Ti     3.254018723     0.000000000    -1.272091068
   O    -0.000000000     2.961092693    -2.544182136
   O    -0.000000000    -2.961092693    -2.544182136
   O    -0.000000000     0.000000000     3.963855309
  Ti    -3.254018723     1.480546347     1.981927655
  Ti     3.254018723     1.480546347     1.981927655
  Ti     3.254018723    -1.480546347     1.981927655
  Ti    -3.254018723    -1.480546347     1.981927655
   O    -3.254018723     2.961092693     0.709836586
   O     3.254018723     2.961092693     0.709836586
   O     3.254018723    -2.961092693     0.709836586
   O    -3.254018723    -2.961092693     0.709836586
  Ti     0.000000000     0.000000000    -4.526109791
   O    -3.254018723     0.000000000     3.254018723
   O     3.254018723     0.000000000     3.254018723
   O    -3.254018723     0.000000000    -3.254018723
   O     3.254018723     0.000000000    -3.254018723
   O    -4.526109791     1.480546347    -1.272091068
   O     4.526109791     1.480546347    -1.272091068
   O     4.526109791    -1.480546347    -1.272091068
   O    -4.526109791    -1.480546347    -1.272091068
   O    -1.272091068     1.480546347    -4.526109791
   O     1.272091068     1.480546347    -4.526109791
   O     1.272091068    -1.480546347    -4.526109791
   O    -1.272091068    -1.480546347    -4.526109791
   O    -0.000000000     2.961092693     3.963855309
   O    -0.000000000    -2.961092693     3.963855309
  Ti     0.000000000     1.480546347     5.235946378
  Ti     0.000000000    -1.480546347     5.235946378
   O    -3.254018723     2.961092693     3.254018723
   O     3.254018723     2.961092693     3.254018723
   O     3.254018723    -2.961092693     3.254018723
   O    -3.254018723    -2.961092693     3.254018723
   O    -3.254018723     2.961092693    -3.254018723
   O     3.254018723     2.961092693    -3.254018723
   O     3.254018723    -2.961092693    -3.254018723
   O    -3.254018723    -2.961092693    -3.254018723
  Ti    -3.254018723     1.480546347    -4.526109791
  Ti     3.254018723     1.480546347    -4.526109791
  Ti     3.254018723    -1.480546347    -4.526109791
  Ti    -3.254018723    -1.480546347    -4.526109791
   O    -1.981927655     1.480546347     5.235946378
   O     1.981927655     1.480546347     5.235946378
   O     1.981927655    -1.480546347     5.235946378
   O    -1.981927655    -1.480546347     5.235946378
   O    -5.235946378     1.480546347     1.981927655
   O     5.235946378     1.480546347     1.981927655
   O     5.235946378    -1.480546347     1.981927655
   O    -5.235946378    -1.480546347     1.981927655
  Ti    -3.254018723     0.000000000     5.235946378
  Ti     3.254018723     0.000000000     5.235946378
   O     0.000000000     0.000000000     6.508037446
   O     0.000000000     0.000000000    -6.508037446
   O    -3.254018723     0.000000000    -5.798200859
   O     3.254018723     0.000000000    -5.798200859
   O    -4.526109791     1.480546347     5.235946378
   O     4.526109791     1.480546347     5.235946378
   O     4.526109791    -1.480546347     5.235946378
   O    -4.526109791    -1.480546347     5.235946378
   O    -5.235946378     1.480546347    -4.526109791
   O     5.235946378     1.480546347    -4.526109791
   O     5.235946378    -1.480546347    -4.526109791
   O    -5.235946378    -1.480546347    -4.526109791
   O     0.000000000     2.961092693     6.508037446
   O     0.000000000    -2.961092693     6.508037446
   O    -3.254018723     2.961092693    -5.798200859
   O     3.254018723     2.961092693    -5.798200859
   O     3.254018723    -2.961092693    -5.798200859
   O    -3.254018723    -2.961092693    -5.798200859
   O    -3.254018723     0.000000000     7.217874032
   O     3.254018723     0.000000000     7.217874032
